Version 4
SHEET 1 2464 1044
WIRE 1344 128 1216 128
WIRE 1424 128 1344 128
WIRE 720 160 176 160
WIRE 816 160 720 160
WIRE 944 160 896 160
WIRE 976 160 944 160
WIRE 1040 160 976 160
WIRE 1216 160 1216 128
WIRE 1216 160 1120 160
WIRE 1424 160 1424 128
WIRE 176 192 176 160
WIRE 944 192 944 160
WIRE 1216 192 1216 160
WIRE 1424 240 1424 224
WIRE 176 304 176 272
WIRE 944 304 944 256
WIRE 944 304 176 304
WIRE 1216 304 1216 256
WIRE 1216 304 944 304
WIRE 1216 336 1216 304
WIRE 1424 336 1424 320
WIRE 1424 336 1216 336
WIRE 1216 368 1216 336
FLAG 1216 368 0
FLAG 1344 128 vtx
FLAG 720 160 va
FLAG 976 160 vb
SYMBOL voltage 176 176 R0
WINDOW 123 0 0 Left 0
WINDOW 39 0 0 Left 0
SYMATTR InstName V1
SYMATTR Value PULSE(0 {VS} 0 100n 100n {1 / Fs / 2 - 100n} {1 / Fs})
SYMBOL ind 800 176 R270
WINDOW 0 32 56 VTop 2
WINDOW 3 5 56 VBottom 2
SYMATTR InstName L2
SYMATTR Value {Llpf2}
SYMATTR SpiceLine Rser={Rl2}
SYMBOL cap 928 192 R0
SYMATTR InstName C2
SYMATTR Value {Clpf2 + Cmatch}
SYMATTR SpiceLine Rser={Rc2}
SYMBOL ind 1024 176 R270
WINDOW 0 32 56 VTop 2
WINDOW 3 5 56 VBottom 2
SYMATTR InstName L3
SYMATTR Value {Lmatch + Lgain}
SYMATTR SpiceLine Rser={Rl3}
SYMBOL cap 1200 192 R0
SYMATTR InstName C3
SYMATTR Value {Cgain}
SYMATTR SpiceLine Rser={Rc3}
SYMBOL cap 1408 160 R0
SYMATTR InstName C4
SYMATTR Value {CM}
SYMBOL res 1408 224 R0
SYMATTR InstName R1
SYMATTR Value {RLeqv}
TEXT 176 -56 Left 2 !.param VS = 90
TEXT 176 -32 Left 2 !.param F = 1Meg
TEXT 440 -56 Left 2 !.param Rl2 = 0.5
TEXT 440 48 Left 2 !.param Rc2 = 0.1
TEXT 176 -8 Left 2 !.param CM = 0.5p
TEXT 176 16 Left 2 !.param RLeqv = 1k
TEXT 176 -120 Left 2 !.tran 0 5m 0 10n
TEXT 176 64 Left 2 !.param Cgain = 110p
TEXT 184 344 Left 2 !.param W = {2 * pi * F}
TEXT 184 440 Left 2 ;TODO: Chebshev filter and matching calculation
TEXT 184 416 Left 2 !.param Lgain = {1 / (W * W * Cgain)}
TEXT 176 -96 Left 2 ;NOTE: RLeqv does not matter much, impedance dominated by CM, then Cgain
TEXT 184 464 Left 2 ;NOTE: Max gain of Chebshev filter happens at around 0.94 omega_0
TEXT 184 488 Left 2 !.param Lmatch = 31.3u
TEXT 184 512 Left 2 !.param Cmatch = 797p
TEXT 184 584 Left 2 !.param Llpf2 = 91.9u
TEXT 184 608 Left 2 !.param Clpf2 = 217p
TEXT 184 632 Left 2 ;NOTE: filter output is 174 ohm
TEXT 1064 440 Left 2 !.step param Fs 980k 1020k 500
TEXT 1064 472 Left 2 !.meas TRAN Lgain_comp PARAM Lgain
TEXT 1064 496 Left 2 !.meas TRAN Vtxpp PP V(vtx)
TEXT 1064 520 Left 2 !.meas TRAN isrcpp PP I(V1)
TEXT 1064 544 Left 2 !.meas TRAN ilgpp PP I(L3)
TEXT 672 -56 Left 2 ;NOTES:\n24x36in plate to plate capacitance: 0.5pF @ 10m, 5pF @ 1m, 2.5pF @ 2m\nAll caps must be C0G dielectric and must satisfy the voltage & current ratings (see verification)\nActuall Cgain delopyed must take plate self-capacitance and probe capacitance into consideration
TEXT 1064 416 Left 2 !.param Fs 995.5k
TEXT 440 -32 Left 2 !.param Rl3 = 18
TEXT 440 72 Left 2 !.param Rc3 = 0.5
TEXT 1064 568 Left 2 !.meas TRAN isrcavg AVG abs(I(V1))
TEXT -24 664 Left 2 ;Directions:\n1. Determine Cgain based on parasitic coupling in the environment and available capacitor values. 100 pF is usually fine.\n2. Determine desired F, VS, and VTX. CM and RLeqv are over-the-air capacitance and the RX load. They have limited impact on TX operation.\n3. Amplitude of the current running through Cgain (Igain_pk) can be determined by VTX/Z(Cgain). Z(Cgain) = 1/(j2piFCgain).\n4. Lgain can be determined by the resonance condition (see param statement). Since Lmatch is usually much smaller, you can make a few test inductors and get a sense of Rl3.\n5. Estimate the power dissipated (Pd) based on (Rl3 * Igain^2)/2.\n6. Compute the current supplied by VS based on Pd/VS. The output impedance of the supply (ZS) is hence VS^2/Pd.\n7. Supply F and ZS to LC LPF design tool (e.g. https://www-users.cs.york.ac.uk/~fisher/lcfilter/, where ZS used as the filter's characteristic impedance).\n8. Choose a 2nd-order 3-dB Chebshev filter that starts with a series element. You may tune the filter parameters a bit so F gets maximum amplitude while 3*F gets good antennuation.\n9. The filter tool will tell you Llpf2, Clpf2, and the output impedance (Zlpf2) of the filter.\n10. Design the matching stage with tools (e.g. https://home.sandiego.edu/~ekim/e194rfs01/jwmatcher/matcher2.html) such that the output is matched to Rl3 (assuming Rl2 and cap ESR negligible).\n11. Choose a topology starts with a shunt cap. The matching stage tool will tell you Lmatch and Cmatch.\n12. Run the sweep simulation to see the actual VTX and optimal frequency (see http://ltwiki.org/index.php?title=Parametric_plot_(plot_measurements_in_relation_to_a_swept_parameter)).\n13. You may need to change the sweep range, do a coarse one first, and then a fine-grained one. You can then tune the system back and forth.
